/*--------------------------------*- C++ -*----------------------------------*\
| =========                 |                                                 |
| \\      /  F ield         | OpenFOAM: The Open Source CFD Toolbox           |
|  \\    /   O peration     | Version:  5                                     |
|   \\  /    A nd           | Web:      www.OpenFOAM.org                      |
|    \\/     M anipulation  |                                                 |
\*---------------------------------------------------------------------------*/
FoamFile
{
    version     2.0;
    format      ascii;
    class       dictionary;
    location    "constant";
    object      thermophysicalProperties;
}

/*

 thermophysicalProperties for non-reacting volvo flygmotor AB

 Nick Curtis -- 04/12/18

*/

thermoType
{
    type            hePsiThermo;
    mixture         reactingMixture;
    transport       sutherland;
    thermo          janaf;
    energy          sensibleEnthalpy;
    equationOfState perfectGas;
    specie          specie;
}

inertSpecie N2;
fuel        C2H4;

chemistryReader foamChemistryReader;
foamChemistryThermoFile "$FOAM_CASE/chemkin/thermo30_foam.dat";
foamChemistryFile "$FOAM_CASE/chemkin/grimech30_foam.dat";

// ************************************************************************* //
