/*--------------------------------*- C++ -*----------------------------------*\
| =========                 |                                                 |
| \\      /  F ield         | OpenFOAM: The Open Source CFD Toolbox           |
|  \\    /   O peration     | Version:  5                                     |
|   \\  /    A nd           | Web:      www.OpenFOAM.org                      |
|    \\/     M anipulation  |                                                 |
\*---------------------------------------------------------------------------*/
FoamFile
{
    version     2.0;
    format      ascii;
    class       volScalarField;
    location    "0";
    object      nut;
}
// * * * * * * * * * * * * * * * * * * * * * * * * * * * * * * * * * * * * * //

// from fireFoam / pitz-daily cases, these appear to be zeroGradient everywhere

dimensions              [0 2 -1 0 0 0 0];
internalField           uniform 0;

boundaryField
{
    top_wall
    {
        type            zeroGradient;
    }
    bottom_wall
    {
        type            zeroGradient;
    }
    bluff_body
    {
        type            zeroGradient;
    }
    inlet
    {
        type            zeroGradient;
    }
    outlet
    {
        type            zeroGradient;
    }
    left_wall
    {
        type            symmetryPlane;
    }
    right_wall
    {
        type            symmetryPlane;
    }
}
