/*--------------------------------*- C++ -*----------------------------------*\
| =========                 |                                                 |
| \\      /  F ield         | OpenFOAM: The Open Source CFD Toolbox           |
|  \\    /   O peration     | Version:  5                                     |
|   \\  /    A nd           | Web:      www.OpenFOAM.org                      |
|    \\/     M anipulation  |                                                 |
\*---------------------------------------------------------------------------*/
FoamFile
{
    version     2.0;
    format      ascii;
    class       dictionary;
    location    "constant";
    object      thermophysicalProperties;
}

/*

 thermophysicalProperties for non-reacting volvo flygmotor AB

 Nick Curtis -- 04/12/18

*/

thermoType
{
    type            heheuPsiThermo;
    mixture         homogeneousMixture;
    transport       const;
    thermo          janaf;
    energy          absoluteEnthalpy;
    equationOfState perfectGas;
    specie          specie;
}

// AFR of Methane is 17.18
// https://www.brighthubengineering.com/machine-design/15235-the-stoichiometric-air-fuel-ratio/
stoichiometricAirFuelMassRatio      stoichiometricAirFuelMassRatio [0 0 0 0 0 0 0]  17.19;

// cd $FOAM_UTILITIES/thermophysical/adiabaticFlameT
// adiabaticFlameT controlDict for methane for phi = 0.62
// phi = 0.82
// ft = 0.0456906
// Tad = 2049.17
reactants
{
    specie
    {
        massFraction    1;
        molWeight       27.835;
    }
    thermodynamics
    {
        Tlow            200;
        Thigh           6000;
        Tcommon         1000;
        highCpCoeffs    ( 3.06023 0.00182423 -5.93882e-07 8.93814e-11 -4.97599e-15 -10998.7 5.32214 );
        lowCpCoeffs     ( 3.54631 0.000378278 2.02793e-07 9.31625e-10 -6.84026e-13 -11102.1 2.901 );
    }
    // constant default transport coeffs
    transport
    {
        mu              1e-5;
        Pr              1;

        As              1.67212e-06;
        Ts              170.672;
    }
}

burntProducts
{
    specie
    {
        molWeight       27.6333;
    }
    thermodynamics
    {
        Tlow            200;
        Thigh           6000;
        Tcommon         1000;
        highCpCoeffs    ( 3.06023 0.00182423 -5.93882e-07 8.93814e-11 -4.97599e-15 -10998.7 5.32214 );
        lowCpCoeffs     ( 3.54631 0.000378278 2.02793e-07 9.31625e-10 -6.84026e-13 -11102.1 2.901 );
    }
    // constant default transport coeffs
    transport
    {
        mu              1e-5;
        Pr              1;

        As              1.67212e-06;
        Ts              170.672;
    }
}
products
{
    specie
    {
        molWeight       27.835;
    }
    thermodynamics
    {
        Tlow            200;
        Thigh           6000;
        Tcommon         1000;
        highCpCoeffs    ( 3.06704 0.00172763 -5.64869e-07 8.55754e-11 -4.79978e-15 -9339.18 5.32775 );
        lowCpCoeffs     ( 3.55253 0.000195099 4.46047e-07 7.59132e-10 -6.42221e-13 -9436.27 2.93604 );
    }
    // constant default transport coeffs
    transport
    {
        mu              1e-5;
        Pr              1;

        As              1.67212e-06;
        Ts              170.672;
    }
}
// ************************************************************************* //
