!---------------------------------------------------------------------------
!  Chemkin File converted from Solution Object by pyMARS
!---------------------------------------------------------------------------
ELEMENTS
O H C N
END
SPECIES
O2              H2O             CH4             CO              
CO2             N2              
END
!---------------------------------------------------------------------------
!  Species data
!---------------------------------------------------------------------------
THERMO ALL
   300.000  1000.000  5000.000
O2                      O   2               G   200.000  3500.000  1000.000    1
 3.28253784e+00 1.48308754e-03-7.57966669e-07 2.09470555e-10-2.16717794e-14    2
-1.08845772e+03 5.45323129e+00 3.78245636e+00-2.99673416e-03 9.84730201e-06    3
-9.68129509e-09 3.24372837e-12-1.06394356e+03 3.65767573e+00                   4
H2O                     H   2O   1          G   200.000  3500.000  1000.000    1
 3.03399249e+00 2.17691804e-03-1.64072518e-07-9.70419870e-11 1.68200992e-14    2
-3.00042971e+04 4.96677010e+00 4.19864056e+00-2.03643410e-03 6.52040211e-06    3
-5.48797062e-09 1.77197817e-12-3.02937267e+04-8.49032208e-01                   4
CH4                     H   4C   1          G   200.000  3500.000  1000.000    1
 7.48514950e-02 1.33909467e-02-5.73285809e-06 1.22292535e-09-1.01815230e-13    2
-9.46834459e+03 1.84373180e+01 5.14987613e+00-1.36709788e-02 4.91800599e-05    3
-4.84743026e-08 1.66693956e-11-1.02466476e+04-4.64130376e+00                   4
CO                      C   1O   1          G   200.000  3500.000  1000.000    1
 2.71518561e+00 2.06252743e-03-9.98825771e-07 2.30053008e-10-2.03647716e-14    2
-1.41518724e+04 7.81868772e+00 3.57953347e+00-6.10353680e-04 1.01681433e-06    3
 9.07005884e-10-9.04424499e-13-1.43440860e+04 3.50840928e+00                   4
CO2                     C   1O   2          G   200.000  3500.000  1000.000    1
 3.85746029e+00 4.41437026e-03-2.21481404e-06 5.23490188e-10-4.72084164e-14    2
-4.87591660e+04 2.27163806e+00 2.35677352e+00 8.98459677e-03-7.12356269e-06    3
 2.45919022e-09-1.43699548e-13-4.83719697e+04 9.90105222e+00                   4
N2                      N   2               G   300.000  5000.000  1000.000    1
 2.92664000e+00 1.48797680e-03-5.68476000e-07 1.00970380e-10-6.75335100e-15    2
-9.22797700e+02 5.98052800e+00 3.29867700e+00 1.40824040e-03-3.96322200e-06    3
 5.64151500e-09-2.44485400e-12-1.02089990e+03 3.95037200e+00                   4
END
!---------------------------------------------------------------------------
!  Reaction Data
!---------------------------------------------------------------------------
REACTIONS
CH4+1.5O2=>CO+2H2O                                 1738586000.0    0.000   35500.00
CO+0.5O2<=>CO2                                     6324555.0    0.700   12000.00
END