!---------------------------------------------------------------------------
!  Chemkin File converted from Solution Object by pyMARS
!---------------------------------------------------------------------------
ELEMENTS
O H C N
END
! species
SPECIES
O2              H2O             CH4             CO
CO2             N2
END
! reactions
REACTIONS
CH4+1.5O2=>CO+2H2O                                 1738586000.0    0.000   35500.00
FORD / CH4 0.5 /
FORD / O2 0.65 /
CO+0.5O2<=>CO2                                     6324555.0    0.700   12000.00
END
