/*--------------------------------*- C++ -*----------------------------------*\
| =========                 |                                                 |
| \\      /  F ield         | OpenFOAM: The Open Source CFD Toolbox           |
|  \\    /   O peration     | Version:  5                                     |
|   \\  /    A nd           | Web:      www.OpenFOAM.org                      |
|    \\/     M anipulation  |                                                 |
\*---------------------------------------------------------------------------*/
FoamFile
{
    version     2.0;
    format      ascii;
    class       volScalarField;
    location    "0";
    object      N2;
}
// * * * * * * * * * * * * * * * * * * * * * * * * * * * * * * * * * * * * * //

dimensions      [0 0 0 0 0 0 0];

internalField   uniform 0.7669924994868982;

boundaryField
{
    inlet
    {
        // see inlet_calculator.py
        type            fixedValue;
        value           $internalField;
    }
    outlet
    {
        type            zeroGradient;
    }
    top_wall
    {
        type            zeroGradient;
    }
    bottom_wall
    {
        type            zeroGradient;
    }
    bluff_body
    {
        type            zeroGradient;
    }
    left_wall
    {
        type            symmetryPlane;
    }
    right_wall
    {
        type            symmetryPlane;
    }
}


// ************************************************************************* //
