/*---------------------------------------------------------------------------*\
| =========                 |                                                 |
| \\      /  F ield         | OpenFOAM: The Open Source CFD Toolbox           |
|  \\    /   O peration     | Version:  5                                     |
|   \\  /    A nd           | Web:      www.OpenFOAM.org                      |
|    \\/     M anipulation  |                                                 |
\*---------------------------------------------------------------------------*/
FoamFile
{
    version     2.0;
    format      ascii;
    class       dictionary;
    location    "chemkin";
    object      transportProperties;
}
// * * * * * * * * * * * * * * * * * * * * * * * * * * * * * * * * * * * * * //

// fitted from Galway Methane model,
// for T=600K-3000K using foamSutherlandTransport.py


       H
       {
            transport
            {
                As              9.32392809057e-07;
                Ts              281.801934876;
            }
       }

       H2
       {
            transport
            {
                As              7.8248589373e-07;
                Ts              258.891879658;
            }
       }

       O
       {
            transport
            {
                As              2.23571763235e-06;
                Ts              263.657888682;
            }
       }

       O2
       {
            transport
            {
                As              1.91998949805e-06;
                Ts              269.39246055;
            }
       }

       OH
       {
            transport
            {
                As              2.30506565978e-06;
                Ts              263.657888682;
            }
       }

       OH*
       {
            transport
            {
                As              2.30506565978e-06;
                Ts              263.657888682;
            }
       }

       H2O
       {
            transport
            {
                As              2.32430794037e-06;
                Ts              1038.92307293;
            }
       }

       HO2
       {
            transport
            {
                As              1.94999421661e-06;
                Ts              269.39246055;
            }
       }

       H2O2
       {
            transport
            {
                As              1.97954419425e-06;
                Ts              269.39246055;
            }
       }

       AR
       {
            transport
            {
                As              2.24159084654e-06;
                Ts              278.548839243;
            }
       }

       CO
       {
            transport
            {
                As              1.63233083221e-06;
                Ts              267.138728904;
            }
       }

       CO2
       {
            transport
            {
                As              1.72560699093e-06;
                Ts              335.123023833;
            }
       }

       CH2O
       {
            transport
            {
                As              1.49576999285e-06;
                Ts              550.201435608;
            }
       }

       HCO
       {
            transport
            {
                As              1.47045024422e-06;
                Ts              550.201435608;
            }
       }

       HO2CHO
       {
            transport
            {
                As              1.76665504246e-06;
                Ts              490.929761023;
            }
       }

       HCOH
       {
            transport
            {
                As              1.49576999285e-06;
                Ts              550.201435608;
            }
       }

       O2CHO
       {
            transport
            {
                As              1.75224171222e-06;
                Ts              490.929761023;
            }
       }

       HOCHO
       {
            transport
            {
                As              1.52183720614e-06;
                Ts              490.929761023;
            }
       }

       OCHO
       {
            transport
            {
                As              1.8314956675e-06;
                Ts              550.201435608;
            }
       }

       HOCH2O2H
       {
            transport
            {
                As              2.15801809322e-06;
                Ts              579.123438546;
            }
       }

       HOCH2O2
       {
            transport
            {
                As              2.14096822813e-06;
                Ts              579.123438546;
            }
       }

       OCH2O2H
       {
            transport
            {
                As              2.14096822813e-06;
                Ts              579.123438546;
            }
       }

       HOCH2O
       {
            transport
            {
                As              1.24294619091e-06;
                Ts              523.617462404;
            }
       }

       CH3OH
       {
            transport
            {
                As              1.51625826573e-06;
                Ts              534.416679913;
            }
       }

       CH2OH
       {
            transport
            {
                As              1.46141595472e-06;
                Ts              520.87024711;
            }
       }

       CH3O
       {
            transport
            {
                As              1.46141595472e-06;
                Ts              520.87024711;
            }
       }

       CH3O2H
       {
            transport
            {
                As              1.85661066005e-06;
                Ts              534.416679913;
            }
       }

       CH3O2
       {
            transport
            {
                As              1.8370310294e-06;
                Ts              534.416679913;
            }
       }

       CH4
       {
            transport
            {
                As              1.11753860567e-06;
                Ts              280.395679649;
            }
       }

       CH3
       {
            transport
            {
                As              1.04893094381e-06;
                Ts              281.406374559;
            }
       }

       CH2
       {
            transport
            {
                As              1.01316066818e-06;
                Ts              281.406374559;
            }
       }

       CH2(S)
       {
            transport
            {
                As              1.01316066818e-06;
                Ts              281.406374559;
            }
       }

       C
       {
            transport
            {
                As              1.36857829022e-06;
                Ts              262.36734284;
            }
       }

       CH
       {
            transport
            {
                As              2.01675395152e-06;
                Ts              263.657888682;
            }
       }

       CH*
       {
            transport
            {
                As              2.01675395152e-06;
                Ts              263.657888682;
            }
       }

       C2H6
       {
            transport
            {
                As              1.06594984419e-06;
                Ts              337.439147618;
            }
       }

       C2H5
       {
            transport
            {
                As              1.04793214825e-06;
                Ts              337.439147618;
            }
       }

       C2H4
       {
            transport
            {
                As              1.59975925444e-06;
                Ts              331.468363244;
            }
       }

       C2H3
       {
            transport
            {
                As              1.37286506331e-06;
                Ts              349.600813306;
            }
       }

       C2H2
       {
            transport
            {
                As              1.34704029457e-06;
                Ts              349.600813306;
            }
       }

       C2H
       {
            transport
            {
                As              1.32071065277e-06;
                Ts              349.600813306;
            }
       }

       CH3CHO
       {
            transport
            {
                As              1.48886946803e-06;
                Ts              490.929761023;
            }
       }

       C2H3OH
       {
            transport
            {
                As              1.20291975724e-06;
                Ts              523.617462404;
            }
       }

       C2H2OH
       {
            transport
            {
                As              1.40636101876e-06;
                Ts              322.798640904;
            }
       }

       CH3CO
       {
            transport
            {
                As              1.47173818046e-06;
                Ts              490.929761023;
            }
       }

       CH2CHO
       {
            transport
            {
                As              1.47173818046e-06;
                Ts              490.929761023;
            }
       }

       O2CH2CHO
       {
            transport
            {
                As              1.07129586816e-06;
                Ts              356.51778378;
            }
       }

       HO2CH2CO
       {
            transport
            {
                As              1.04089142836e-06;
                Ts              361.892833083;
            }
       }

       CH2CO
       {
            transport
            {
                As              1.45440511922e-06;
                Ts              490.929761023;
            }
       }

       HCCO
       {
            transport
            {
                As              3.98316883491e-06;
                Ts              283.828533725;
            }
       }

       HCCOH
       {
            transport
            {
                As              1.45440511922e-06;
                Ts              490.929761023;
            }
       }

       CH3CO3H
       {
            transport
            {
                As              1.9562452318e-06;
                Ts              490.929761023;
            }
       }

       CH3CO3
       {
            transport
            {
                As              1.94323863329e-06;
                Ts              490.929761022;
            }
       }

       CH3CO2
       {
            transport
            {
                As              1.72368640677e-06;
                Ts              490.929761023;
            }
       }

       C2H5OH
       {
            transport
            {
                As              1.23013480355e-06;
                Ts              523.617462404;
            }
       }

       C2H5O
       {
            transport
            {
                As              1.21660338181e-06;
                Ts              523.617462404;
            }
       }

       PC2H4OH
       {
            transport
            {
                As              1.21660338181e-06;
                Ts              523.617462404;
            }
       }

       SC2H4OH
       {
            transport
            {
                As              1.21660338181e-06;
                Ts              523.617462404;
            }
       }

       O2C2H4OH
       {
            transport
            {
                As              9.61608562625e-07;
                Ts              577.989264966;
            }
       }

       C2H5O2H
       {
            transport
            {
                As              1.42785313633e-06;
                Ts              523.617462404;
            }
       }

       C2H5O2
       {
            transport
            {
                As              1.41621210723e-06;
                Ts              523.617462404;
            }
       }

       C2H4O2H
       {
            transport
            {
                As              1.41621210723e-06;
                Ts              523.617462404;
            }
       }

       C2H4O1-2
       {
            transport
            {
                As              1.48886946803e-06;
                Ts              490.929761023;
            }
       }

       C2H3O1-2
       {
            transport
            {
                As              1.47173818046e-06;
                Ts              490.929761023;
            }
       }

       CH3COCH3
       {
            transport
            {
                As              1.14080595012e-06;
                Ts              490.464709378;
            }
       }

       CH3COCH2
       {
            transport
            {
                As              1.13086366623e-06;
                Ts              490.464709378;
            }
       }

       CH3COCH2O2
       {
            transport
            {
                As              1.12621692795e-06;
                Ts              554.238520509;
            }
       }

       C3KET21
       {
            transport
            {
                As              1.34161409663e-06;
                Ts              554.134373143;
            }
       }

       C2H3CHO
       {
            transport
            {
                As              1.09002108905e-06;
                Ts              550.952939937;
            }
       }

       C2H3CO
       {
            transport
            {
                As              1.54437364937e-06;
                Ts              497.641969289;
            }
       }

       C2H5CHO
       {
            transport
            {
                As              1.25483799767e-06;
                Ts              561.696211541;
            }
       }

       C2H5CO
       {
            transport
            {
                As              1.1510215316e-06;
                Ts              480.392419446;
            }
       }

       CH3OCH3
       {
            transport
            {
                As              1.48219380848e-06;
                Ts              463.842110667;
            }
       }

       CH3OCH2
       {
            transport
            {
                As              1.46588975021e-06;
                Ts              463.842110667;
            }
       }

       CH3OCH2O2
       {
            transport
            {
                As              1.91696698864e-06;
                Ts              463.842110667;
            }
       }

       CH2OCH2O2H
       {
            transport
            {
                As              1.91696698864e-06;
                Ts              463.842110667;
            }
       }

       CH3OCH2O2H
       {
            transport
            {
                As              1.92946317966e-06;
                Ts              463.842110667;
            }
       }

       CH3OCH2O
       {
            transport
            {
                As              1.70639901478e-06;
                Ts              463.842110667;
            }
       }

       O2CH2OCH2O2H
       {
            transport
            {
                As              2.28050260059e-06;
                Ts              463.842110667;
            }
       }

       HO2CH2OCHO
       {
            transport
            {
                As              2.09515191509e-06;
                Ts              463.842110667;
            }
       }

       OCH2OCHO
       {
            transport
            {
                As              1.89172698434e-06;
                Ts              463.842110667;
            }
       }

       HOCH2OCO
       {
            transport
            {
                As              1.89172698434e-06;
                Ts              463.842110667;
            }
       }

       CH3OCHO
       {
            transport
            {
                As              1.69225644378e-06;
                Ts              463.842110667;
            }
       }

       CH3OCO
       {
            transport
            {
                As              1.67799467978e-06;
                Ts              463.842110667;
            }
       }

       CH2OCHO
       {
            transport
            {
                As              1.67799467978e-06;
                Ts              463.842110667;
            }
       }

       HE
       {
            transport
            {
                As              1.70494605568e-06;
                Ts              252.316261222;
            }
       }

       C3H8
       {
            transport
            {
                As              1.03744628801e-06;
                Ts              377.587330569;
            }
       }

       IC3H7
       {
            transport
            {
                As              1.0255209893e-06;
                Ts              377.587330569;
            }
       }

       NC3H7
       {
            transport
            {
                As              1.0255209893e-06;
                Ts              377.587330569;
            }
       }

       C3H6
       {
            transport
            {
                As              1.36650951801e-06;
                Ts              380.972136824;
            }
       }

       C3H5-A
       {
            transport
            {
                As              1.29677285044e-06;
                Ts              387.353879871;
            }
       }

       C3H5-S
       {
            transport
            {
                As              1.29677285044e-06;
                Ts              387.353879871;
            }
       }

       C3H5-T
       {
            transport
            {
                As              1.29677285044e-06;
                Ts              387.353879871;
            }
       }

       C3H4-P
       {
            transport
            {
                As              1.23683295e-06;
                Ts              394.327814063;
            }
       }

       C3H4-A
       {
            transport
            {
                As              1.23683295e-06;
                Ts              394.327814063;
            }
       }

       C3H3
       {
            transport
            {
                As              1.22117586926e-06;
                Ts              394.327814063;
            }
       }

       C3H5O
       {
            transport
            {
                As              1.15281423173e-06;
                Ts              467.993304298;
            }
       }

       C3H6OOH1-2
       {
            transport
            {
                As              1.42678220168e-06;
                Ts              561.696211541;
            }
       }

       C3H6OOH1-3
       {
            transport
            {
                As              1.42678220168e-06;
                Ts              561.696211541;
            }
       }

       CC3H4
       {
            transport
            {
                As              1.02586045772e-06;
                Ts              340.452892974;
            }
       }

       H2CC
       {
            transport
            {
                As              1.13558895356e-06;
                Ts              313.395837692;
            }
       }

       CJ*CC*CC*O
       {
            transport
            {
                As              9.86458298051e-07;
                Ts              577.989264966;
            }
       }

       C*CC*CCJ*O
       {
            transport
            {
                As              9.86458298051e-07;
                Ts              577.989264966;
            }
       }

       CJ*CC*O
       {
            transport
            {
                As              1.54437364937e-06;
                Ts              497.641969289;
            }
       }

       C*CC*CCJ
       {
            transport
            {
                As              1.07445533995e-06;
                Ts              465.282139302;
            }
       }

       C*CC*CC
       {
            transport
            {
                As              1.08249394131e-06;
                Ts              465.282139302;
            }
       }

       C*CC*CCOH
       {
            transport
            {
                As              1.00468140423e-06;
                Ts              577.989264966;
            }
       }

       HOC*CC*O
       {
            transport
            {
                As              1.39775824938e-06;
                Ts              561.696211541;
            }
       }

       HOC*CCJ*O
       {
            transport
            {
                As              1.38794873149e-06;
                Ts              561.696211541;
            }
       }

       H2CCC(S)
       {
            transport
            {
                As              1.62835358751e-06;
                Ts              349.600813306;
            }
       }

       CPCC*CCJ
       {
            transport
            {
                As              1.05819495684e-06;
                Ts              465.282139302;
            }
       }

       HOCO
       {
            transport
            {
                As              1.8314956675e-06;
                Ts              550.201435608;
            }
       }

       N2
       {
            transport
            {
                As              1.65999886868e-06;
                Ts              267.011233257;
            }
       }
