/*--------------------------------*- C++ -*----------------------------------*\
| =========                 |                                                 |
| \\      /  F ield         | OpenFOAM: The Open Source CFD Toolbox           |
|  \\    /   O peration     | Version:  4.x                                   |
|   \\  /    A nd           | Web:      www.OpenFOAM.org                      |
|    \\/     M anipulation  |                                                 |
\*---------------------------------------------------------------------------*/
FoamFile
{
    version     2.0;
    format      ascii;
    class       dictionary;
    object      mapFieldsDict;
}
// * * * * * * * * * * * * * * * * * * * * * * * * * * * * * * * * * * * * * //

// List of pairs of target/source patches for mapping
patchMap
(
    top_wall top_wall
    left_wall left_wall
    right_wall right_wall
    bottom_wall bottom_wall
    bluff_body bluff_body
);

// List of target patches cutting the source domain (these need to be
// handled specially e.g. interpolated from internal values)
// outlet & inlet have different boundary conditions from potentialFoam
cuttingPatches
(
    outlet outlet
    inlet inlet
);
