/*--------------------------------*- C++ -*----------------------------------*\
| =========                 |                                                 |
| \\      /  F ield         | OpenFOAM: The Open Source CFD Toolbox           |
|  \\    /   O peration     | Version:  5.x                                   |
|   \\  /    A nd           | Web:      www.OpenFOAM.org                      |
|    \\/     M anipulation  |                                                 |
\*---------------------------------------------------------------------------*/
FoamFile
{
    version         2;
    format          ascii;
    class           dictionary;
    location        "system";
    object          controlDict;
}

/*

Setup for simulation of Volvo flygmotor AB non-reacting flow LES

Nicholas Curtis - 04/05/2018

*/


// use same settings for both non-reacting & reacting simulations per Cocks et al.
application     reactingFoam;

startFrom       latestTime;

startTime       0;

stopAt          endTime;

// ~ equivalent to 10 residence times
endTime         0.5;

// reacting time-step from Cocks et al.
deltaT          3e-7;

// output -- mostly pulled from combustion/reactingFoam/RAS/SandiaD_LTS tutorial
writeControl    runTime;
writeInterval   5e-05; // s
purgeWrite      0;
writeFormat     binary;
writePrecision  10;
writeCompression no;
timeFormat      general;
timePrecision   16;
runTimeModifiable true;

/*
functions
{
    #includeFunc    meanAxialVelocity
    #includeFunc    axialDeficitPlot_0p375
    #includeFunc    axialDeficitPlot_0p95
    #includeFunc    axialDeficitPlot_1p53
    #includeFunc    axialDeficitPlot_3p75
    #includeFunc    axialDeficitPlot_9p4
}
*/
