/*--------------------------------*- C++ -*----------------------------------*\
| =========                 |                                                 |
| \\      /  F ield         | OpenFOAM: The Open Source CFD Toolbox           |
|  \\    /   O peration     | Version:  5.x                                   |
|   \\  /    A nd           | Web:      www.OpenFOAM.org                      |
|    \\/     M anipulation  |                                                 |
\*---------------------------------------------------------------------------*/
FoamFile
{
    version     2.0;
    format      ascii;
    class       dictionary;
    location    "0";
    object      initialValues;
}


// a collection of initial values, importable to other files

#include "../system/meshDims"

// operating pressure, 1 bar
Pref  		100000;
// equivalence ratio
phi         0.82;
// mass fraction of CH4, for an equivalence ratio of 0.82
CH4_init    0.045706816557972915;
// mass fraction of N2 of air, for reacting
N2_init		0.7319357140115094;
// mass fraction of O2 of air, for reacting
O2_init		0.22235746943051762;
// inlet temperature
Tref        288;
// inlet velocity
Ubulk 		17.2;
// specific heat ratio
gamma		1.3906445526684523;
// mass flow rate (kg/s)
mdot 		0.1919225315929918;
// inlet density (kg/m3)
rho_inlet 	1.1623215333877897;
// residence time, in seconds
t_res		#calc "($L_total * $convertToMeters) / $Ubulk";
