/*---------------------------------------------------------------------------*\
| =========                 |                                                 |
| \\      /  F ield         | OpenFOAM: The Open Source CFD Toolbox           |
|  \\    /   O peration     | Version:  5                                     |
|   \\  /    A nd           | Web:      www.OpenFOAM.org                      |
|    \\/     M anipulation  |                                                 |
\*---------------------------------------------------------------------------*/
FoamFile
{
    version     2.0;
    format      ascii;
    class       dictionary;
    location    "chemkin";
    object      transportProperties;
}
// * * * * * * * * * * * * * * * * * * * * * * * * * * * * * * * * * * * * * //

// fitted from GRI-Mech 3.0, for T=600K-3000K using foamSutherlandTransport.py

H2
{
    transport
    {
        As              7.82485893730195e-07;
        Ts              258.8918796578515;
    }
}

H
{
    transport
    {
        As              9.323928090568736e-07;
        Ts              281.80193487596193;
    }
}

O
{
    transport
    {
        As              2.2357176323468965e-06;
        Ts              263.65788868163804;
    }
}

O2
{
    transport
    {
        As              1.9177704985312616e-06;
        Ts              269.3924605498004;
    }
}

OH
{
    transport
    {
        As              2.3050656597786094e-06;
        Ts              263.6578886816662;
    }
}

H2O
{
    transport
    {
        As              2.3337275688260564e-06;
        Ts              1040.2420579901334;
    }
}

HO2
{
    transport
    {
        As              1.9477405395780943e-06;
        Ts              269.3924605498285;
    }
}

H2O2
{
    transport
    {
        As              1.97725636526848e-06;
        Ts              269.3924605498108;
    }
}

C
{
    transport
    {
        As              1.3669199101387239e-06;
        Ts              262.3673428395632;
    }
}

CH
{
    transport
    {
        As              2.016753951524338e-06;
        Ts              263.6578886815507;
    }
}

CH2
{
    transport
    {
        As              1.0131606681790678e-06;
        Ts              281.40637455864413;
    }
}

CH2S
{
    transport
    {
        As              1.0131606681790678e-06;
        Ts              281.40637455864413;
    }
}

CH3
{
    transport
    {
        As              1.0489309438119219e-06;
        Ts              281.4063745586745;
    }
}

CH4
{
    transport
    {
        As              1.1151557948170227e-06;
        Ts              280.3956796484846;
    }
}

CO
{
    transport
    {
        As              1.6323308322055502e-06;
        Ts              267.13872890391247;
    }
}

CO2
{
    transport
    {
        As              1.7283617176307054e-06;
        Ts              335.1230238325963;
    }
}

HCO
{
    transport
    {
        As              1.4704502442222103e-06;
        Ts              550.2014356081398;
    }
}

CH2O
{
    transport
    {
        As              1.495769992846114e-06;
        Ts              550.2014356081605;
    }
}

CH2OH
{
    transport
    {
        As              1.4614159547223293e-06;
        Ts              520.8702471096484;
    }
}

CH3O
{
    transport
    {
        As              1.4614159547223293e-06;
        Ts              520.8702471096484;
    }
}

CH3OH
{
    transport
    {
        As              1.512918490830513e-06;
        Ts              534.4166799130321;
    }
}

C2H
{
    transport
    {
        As              1.1133924012376049e-06;
        Ts              313.3958376924408;
    }
}

C2H2
{
    transport
    {
        As              1.1355889535608748e-06;
        Ts              313.3958376924398;
    }
}

C2H3
{
    transport
    {
        As              1.1573598851547214e-06;
        Ts              313.3958376924408;
    }
}

C2H4
{
    transport
    {
        As              1.22231593185818e-06;
        Ts              360.6808232703401;
    }
}

C2H5
{
    transport
    {
        As              1.0705244716343192e-06;
        Ts              340.6548715415573;
    }
}

C2H6
{
    transport
    {
        As              1.0889306102899268e-06;
        Ts              340.654871541563;
    }
}

HCCO
{
    transport
    {
        As              3.983168834909357e-06;
        Ts              283.82853372452354;
    }
}

CH2CO
{
    transport
    {
        As              1.4544051192222896e-06;
        Ts              490.92976102260974;
    }
}

HCCOH
{
    transport
    {
        As              1.4544051192222896e-06;
        Ts              490.92976102260974;
    }
}

N
{
    transport
    {
        As              1.4761212062466666e-06;
        Ts              262.36734283956963;
    }
}

NH
{
    transport
    {
        As              2.3323664408447647e-06;
        Ts              263.6578886816834;
    }
}

NH2
{
    transport
    {
        As              2.409381159736572e-06;
        Ts              263.65788868170404;
    }
}

NH3
{
    transport
    {
        As              1.7297987496146841e-06;
        Ts              627.8671490520796;
    }
}

NNH
{
    transport
    {
        As              1.6024094651120428e-06;
        Ts              262.3673428396346;
    }
}

NO
{
    transport
    {
        As              1.7189737108183013e-06;
        Ts              267.01123325673274;
    }
}

NO2
{
    transport
    {
        As              2.081136517895893e-06;
        Ts              308.2741966291251;
    }
}

N2O
{
    transport
    {
        As              1.6736838606990549e-06;
        Ts              327.6199937292537;
    }
}

HNO
{
    transport
    {
        As              1.835194613843748e-06;
        Ts              271.97550361822414;
    }
}

CN
{
    transport
    {
        As              1.4602580864578476e-06;
        Ts              262.88412436364354;
    }
}

HCN
{
    transport
    {
        As              1.3834155815397873e-06;
        Ts              621.4393433483526;
    }
}

H2CN
{
    transport
    {
        As              1.4089771137528218e-06;
        Ts              621.4393433484172;
    }
}

HCNN
{
    transport
    {
        As              3.983318336824132e-06;
        Ts              283.8285337245343;
    }
}

HCNO
{
    transport
    {
        As              1.6547956769413835e-06;
        Ts              327.61999372925;
    }
}

HOCN
{
    transport
    {
        As              1.6547956769413835e-06;
        Ts              327.61999372925;
    }
}

HNCO
{
    transport
    {
        As              1.6547956769413835e-06;
        Ts              327.61999372925;
    }
}

NCO
{
    transport
    {
        As              1.635297520570532e-06;
        Ts              327.6199937292398;
    }
}

N2
{
    transport
    {
        As              1.6609161217973517e-06;
        Ts              267.0112332567345;
    }
}

AR
{
    transport
    {
        As              2.2415908465410007e-06;
        Ts              278.54883924327066;
    }
}

C3H7
{
    transport
    {
        As              9.669480713039516e-07;
        Ts              350.65356833654033;
    }
}

C3H8
{
    transport
    {
        As              9.78192253242916e-07;
        Ts              350.6535683365505;
    }
}

CH2CHO
{
    transport
    {
        As              1.47173818045919e-06;
        Ts              490.9297610225195;
    }
}

CH3CHO
{
    transport
    {
        As              1.488869468026973e-06;
        Ts              490.9297610225123;
    }
}
