/*--------------------------------*- C++ -*----------------------------------*\
| =========                 |                                                 |
| \\      /  F ield         | OpenFOAM: The Open Source CFD Toolbox           |
|  \\    /   O peration     | Version:  5                                     |
|   \\  /    A nd           | Web:      www.OpenFOAM.org                      |
|    \\/     M anipulation  |                                                 |
\*---------------------------------------------------------------------------*/
FoamFile
{
    version     2.0;
    format      ascii;
    class       volScalarField;
    location    "0";
    object      Su;
}
// * * * * * * * * * * * * * * * * * * * * * * * * * * * * * * * * * * * * * //

dimensions      [0 1 -1 0 0 0 0];

// from http://www.tfd.chalmers.se/~hani/kurser/OS_CFD_2010/ehsanYasari/ehsanYasariReport.pdf
// and XiFoam tutorial

#include "../0/XiInitialConditions"

internalField           uniform $Su;

boundaryField
{
    top_wall
    {
        type            zeroGradient;
    }
    bottom_wall
    {
        type            zeroGradient;
    }
    bluff_body
    {
        type            zeroGradient;
    }
    left_wall
    {
        type            symmetryPlane;
    }
    right_wall
    {
        type            symmetryPlane;
    }
    inlet
    {
        type            calculated;
        value           $internalField;
    }
    outlet
    {
        type            calculated;
        value           $internalField;
    }
}


// ************************************************************************* //
