/*--------------------------------*- C++ -*----------------------------------*\
| =========                 |                                                 |
| \\      /  F ield         | OpenFOAM: The Open Source CFD Toolbox           |
|  \\    /   O peration     | Version:  5.x                                   |
|   \\  /    A nd           | Web:      www.OpenFOAM.org                      |
|    \\/     M anipulation  |                                                 |
\*---------------------------------------------------------------------------*/
FoamFile
{
    version     2.0;
    format      ascii;
    class       dictionary;
    location    "0";
    object      ransInitialValues;
}


// a collection of initial values specifically for XiFoam
#include        "initialValues";

// laminar flamespeed from flamespeed.py for methane w/ phi = 0.62 [m/s]
Su          0.133252;
