/*--------------------------------*- C++ -*----------------------------------*\
| =========                 |                                                 |
| \\      /  F ield         | OpenFOAM: The Open Source CFD Toolbox           |
|  \\    /   O peration     | Version:  5                                     |
|   \\  /    A nd           | Web:      www.OpenFOAM.org                      |
|    \\/     M anipulation  |                                                 |
\*---------------------------------------------------------------------------*/
FoamFile
{
    version     2.0;
    format      ascii;
    class       dictionary;
    location    "system";
    object      fvSolution;
}

/*

Setup for simulation of Volvo flygmotor AB non-reacting flow LES

Nicholas Curtis - 04/20/2018

Based on:

Cocks et al: https://arc.aiaa.org/doi/abs/10.2514/6.2013-170
Wolf: http://www.wolfdynamics.com/wiki/OFtipsandtricks.pdf
Manual: https://cfd.direct/openfoam/user-guide/fvSolution/
PRM: https://github.com/ParticulateFlow/OSCCAR-doc/blob/master/openFoamUserManual_PFM.pdf

*/

solvers
{
    // based on XiFoam solver
    "(p|rho)"
    {
        solver              PCG;
        preconditioner      DIC;
        tolerance           1e-4;
        relTol              0.05;
        minIter             3;
    };
    "(p|rho)Final"
    {
        $p
        tolerance         1e-6;
        relTol            0;
    }

    "(U|b|Su|Xi|ha|hau|k|epsilon)"
    {
        solver          PBiCGStab;
        preconditioner  DILU;
        tolerance       1e-8;
        relTol          0;
    };
    "(U|b|Su|Xi|ha|hau|k|epsilon)Final"
    {
        $U;
        relTol          0;
    };
}

PIMPLE
{
    // manual - PISO, SIMPLE and PIMPLE algorithms
    // neither low RE nor multi-phase -> use momentum corrector
    momentumPredictor yes;
    nOuterCorrectors  1;
    nCorrectors       3;
    // wolf p.g., 43
    nNonOrthogonalCorrectors 1;
    maxDeltaT           1e-6;
    // from SANDIA Flame-D
    alphaTemp           0.05;
    rDeltaTSmoothingCoeff   0.025;
    rDeltaTDampingCoeff     1;
}

relaxationFactors
{
    equations
    {
        T               0.9;
        P               0.9;
        ".*"            1;
    }
}
