/*--------------------------------*- C++ -*----------------------------------*\
| =========                 |                                                 |
| \\      /  F ield         | OpenFOAM: The Open Source CFD Toolbox           |
|  \\    /   O peration     | Version:  5                                     |
|   \\  /    A nd           | Web:      www.OpenFOAM.org                      |
|    \\/     M anipulation  |                                                 |
\*---------------------------------------------------------------------------*/
FoamFile
{
    version     2.0;
    format      ascii;
    class       volScalarField;
    location    "0";
    object      nut;
}
// * * * * * * * * * * * * * * * * * * * * * * * * * * * * * * * * * * * * * //

// From Sandia Flame D case, we can set the walls ot nutkWallFunction w/ value 0
// and inlets / outlets as calculated

dimensions              [0 2 -1 0 0 0 0];
internalField           uniform 0.1;

boundaryField
{
    // the maximum wall normal distance is < 0.3mm, and from
    // http://www.pointwise.com/yplus/, the expected y+ is ~0.0166 mm, hence we need
    // a wall treatment
    top_wall
    {
        type            calculated;
        value           $internalField
    }
    bottom_wall
    {
        type            calculated;
        value           $internalField
    }
    bluff_body
    {
        type            calculated;
        value           $internalField
    }
    inlet
    {
        type            fixedValue;
        value           uniform 0;
    }
    outlet
    {
        type            zeroGradient;
    }
    left_wall
    {
        type            symmetry;
    }
    right_wall
    {
        type            symmetry;
    }
}
